support/feeders/R3-12.47-2.glm
clock {
     timezone EST+5EDT;
     timestamp '2000-01-01 0:00:00';
     stoptime '2000-01-01 0:01:00';
}
#set profiler=1
module tape;
module powerflow{
     solver_method NR;
      default_maximum_voltage_error 1e-6;
};
#ifdef WANT_VI_DUMP
object voltdump {
  filename Voltage_Dump_R3-12-47-2.csv;
}
object currdump {
  filename Current_Dump_R3-12-47-2.csv;
}
#endif
object transformer_configuration {
  name XF1_POLETOP_BN_10;
  power_rating 10.00;
  powerA_rating 0.0;
  powerB_rating 10.00;
  powerC_rating 0.0;
  install_type POLETOP;
  connect_type WYE_WYE;
  primary_voltage 12470.0;
  secondary_voltage 208.0;
  resistance 0.01900;
  reactance 0.01770;
  shunt_resistance 126.58;
  shunt_reactance 22.57;
}
object transformer_configuration {
  name XF1_POLETOP_AN_10;
  power_rating 10.00;
  powerA_rating 10.00;
  powerB_rating 0.0;
  powerC_rating 0.0;
  install_type POLETOP;
  connect_type WYE_WYE;
  primary_voltage 12470.0;
  secondary_voltage 208.0;
  resistance 0.01900;
  reactance 0.01770;
  shunt_resistance 126.58;
  shunt_reactance 22.57;
}
object transformer_configuration {
  name XF1_POLETOP_AN_15;
  power_rating 15.00;
  powerA_rating 15.00;
  powerB_rating 0.0;
  powerC_rating 0.0;
  install_type POLETOP;
  connect_type WYE_WYE;
  primary_voltage 12470.0;
  secondary_voltage 208.0;
  resistance 0.01900;
  reactance 0.01770;
  shunt_resistance 126.58;
  shunt_reactance 22.57;
}
object transformer_configuration {
  name XF1_POLETOP_BN_5;
  power_rating 5.00;
  powerA_rating 0.0;
  powerB_rating 5.00;
  powerC_rating 0.0;
  install_type POLETOP;
  connect_type WYE_WYE;
  primary_voltage 12470.0;
  secondary_voltage 208.0;
  resistance 0.01900;
  reactance 0.01770;
  shunt_resistance 126.58;
  shunt_reactance 22.57;
}
object transformer_configuration {
  name XF1_POLETOP_BN_15;
  power_rating 15.00;
  powerA_rating 0.0;
  powerB_rating 15.00;
  powerC_rating 0.0;
  install_type POLETOP;
  connect_type WYE_WYE;
  primary_voltage 12470.0;
  secondary_voltage 208.0;
  resistance 0.01900;
  reactance 0.01770;
  shunt_resistance 126.58;
  shunt_reactance 22.57;
}
object transformer_configuration {
  name XF3_POLETOP_ABCN_45;
  power_rating 45.00;
  powerA_rating 15.00;
  powerB_rating 15.00;
  powerC_rating 15.00;
  install_type POLETOP;
  connect_type WYE_WYE;
  primary_voltage 12470.0;
  secondary_voltage 208.0;
  resistance 0.01750;
  reactance 0.02120;
  shunt_resistance 142.86;
  shunt_reactance 25.38;
}
object transformer_configuration {
  name XF2_POLETOP_ABN_30;
  power_rating 30.00;
  powerA_rating 15.00;
  powerB_rating 15.00;
  powerC_rating 0.0;
  install_type POLETOP;
  connect_type WYE_WYE;
  primary_voltage 12470.0;
  secondary_voltage 208.0;
  resistance 0.01900;
  reactance 0.01770;
  shunt_resistance 126.58;
  shunt_reactance 22.57;
}
object transformer_configuration {
  name XF1_POLETOP_AN_5;
  power_rating 5.00;
  powerA_rating 5.00;
  powerB_rating 0.0;
  powerC_rating 0.0;
  install_type POLETOP;
  connect_type WYE_WYE;
  primary_voltage 12470.0;
  secondary_voltage 208.0;
  resistance 0.01900;
  reactance 0.01770;
  shunt_resistance 126.58;
  shunt_reactance 22.57;
}
object transformer_configuration {
  name XF3_POLETOP_ABCN_30;
  power_rating 30.00;
  powerA_rating 10.00;
  powerB_rating 10.00;
  powerC_rating 10.00;
  install_type POLETOP;
  connect_type WYE_WYE;
  primary_voltage 12470.0;
  secondary_voltage 208.0;
  resistance 0.01900;
  reactance 0.01770;
  shunt_resistance 126.58;
  shunt_reactance 22.57;
}
object transformer_configuration {
  name XF3_POLETOP_ABCN_112p5;
  power_rating 112.50;
  powerA_rating 37.50;
  powerB_rating 37.50;
  powerC_rating 37.50;
  install_type POLETOP;
  connect_type WYE_WYE;
  primary_voltage 12470.0;
  secondary_voltage 480.0;
  resistance 0.01450;
  reactance 0.02850;
  shunt_resistance 169.49;
  shunt_reactance 33.44;
}
object transformer_configuration {
  name XF1_POLETOP_CN_15;
  power_rating 15.00;
  powerA_rating 0.0;
  powerB_rating 0.0;
  powerC_rating 15.00;
  install_type POLETOP;
  connect_type WYE_WYE;
  primary_voltage 12470.0;
  secondary_voltage 208.0;
  resistance 0.01900;
  reactance 0.01770;
  shunt_resistance 126.58;
  shunt_reactance 22.57;
}
object transformer_configuration {
  name XF3_POLETOP_ABCN_225;
  power_rating 225.00;
  powerA_rating 75.00;
  powerB_rating 75.00;
  powerC_rating 75.00;
  install_type POLETOP;
  connect_type WYE_WYE;
  primary_voltage 12470.0;
  secondary_voltage 480.0;
  resistance 0.01300;
  reactance 0.03520;
  shunt_resistance 200.00;
  shunt_reactance 40.00;
}
object transformer_configuration {
  name XF3_POLETOP_ABCN_750;
  power_rating 750.00;
  powerA_rating 250.00;
  powerB_rating 250.00;
  powerC_rating 250.00;
  install_type POLETOP;
  connect_type WYE_WYE;
  primary_voltage 12470.0;
  secondary_voltage 480.0;
  resistance 0.00970;
  reactance 0.05110;
  shunt_resistance 227.27;
  shunt_reactance 52.91;
}
object transformer_configuration {
  name XF1_POLETOP_CN_10;
  power_rating 10.00;
  powerA_rating 0.0;
  powerB_rating 0.0;
  powerC_rating 10.00;
  install_type POLETOP;
  connect_type WYE_WYE;
  primary_voltage 12470.0;
  secondary_voltage 208.0;
  resistance 0.01900;
  reactance 0.01770;
  shunt_resistance 126.58;
  shunt_reactance 22.57;
}
object transformer_configuration {
  name XF3_POLETOP_ABCN_300;
  power_rating 300.00;
  powerA_rating 100.00;
  powerB_rating 100.00;
  powerC_rating 100.00;
  install_type POLETOP;
  connect_type WYE_WYE;
  primary_voltage 12470.0;
  secondary_voltage 480.0;
  resistance 0.01300;
  reactance 0.04830;
  shunt_resistance 217.39;
  shunt_reactance 44.44;
}
object transformer_configuration {
  name XF3_POLETOP_ABCN_1000;
  power_rating 1000.00;
  powerA_rating 333.33;
  powerB_rating 333.33;
  powerC_rating 333.33;
  install_type POLETOP;
  connect_type WYE_WYE;
  primary_voltage 12470.0;
  secondary_voltage 480.0;
  resistance 0.00850;
  reactance 0.05690;
  shunt_resistance 232.56;
  shunt_reactance 60.61;
}
object transformer_configuration {
  name XF3_POLETOP_ABCN_500;
  power_rating 500.00;
  powerA_rating 166.67;
  powerB_rating 166.67;
  powerC_rating 166.67;
  install_type POLETOP;
  connect_type WYE_WYE;
  primary_voltage 12470.0;
  secondary_voltage 480.0;
  resistance 0.01100;
  reactance 0.04880;
  shunt_resistance 222.22;
  shunt_reactance 44.25;
}
object regulator_configuration {
  name feeder_reg_cfg;
  Control OUTPUT_VOLTAGE;
  band_center 7500.0;
  band_width 120;
  connect_type WYE_WYE;
  time_delay 30;
  raise_taps 16;
  lower_taps 16;
  regulation 0.10;
  tap_pos_A 0;
  tap_pos_B 0;
  tap_pos_C 0;
}
object overhead_line_conductor {
  name ID_537;
  rating.summer.continuous 256.0;
  geometric_mean_radius 0.01200 ft;
  resistance 0.16600;
}
object overhead_line_conductor {
  name ID_538;
  rating.summer.continuous 663.0;
  geometric_mean_radius 0.02710 ft;
  resistance 0.03690;
}
object overhead_line_conductor {
  name ID_539;
  rating.summer.continuous 180.0;
  geometric_mean_radius 0.00340 ft;
  resistance 0.28600;
}
object overhead_line_conductor {
  name ID_540;
  rating.summer.continuous 149.0;
  geometric_mean_radius 0.00663 ft;
  resistance 1.50000;
}
object overhead_line_conductor {
  name ID_541;
  rating.summer.continuous 266.0;
  geometric_mean_radius 0.01142 ft;
  resistance 0.95300;
}
object overhead_line_conductor {
  name ID_542;
  rating.summer.continuous 204.0;
  geometric_mean_radius 0.00836 ft;
  resistance 0.94500;
}
object overhead_line_conductor {
  name ID_543;
  rating.summer.continuous 460.0;
  geometric_mean_radius 0.02020 ft;
  resistance 0.06570;
}
object overhead_line_conductor {
  name ID_544;
  rating.summer.continuous 443.0;
  geometric_mean_radius 0.02270 ft;
  resistance 0.05230;
}
object overhead_line_conductor {
  name ID_545;
  rating.summer.continuous 605.0;
  geometric_mean_radius 0.02920 ft;
  resistance 0.03180;
}
object overhead_line_conductor {
  name ID_546;
  rating.summer.continuous 600.0;
  geometric_mean_radius 0.00801 ft;
  resistance 0.30590;
}
object line_spacing {
  name ID_52;
  distance_BN 36.0 in;
}
object line_spacing {
  name ID_53;
  distance_AB 48.0 in;
  distance_BC 48.0 in;
  distance_AC 48.0 in;
  distance_AN 36.0 in;
  distance_BN 36.0 in;
  distance_CN 36.0 in;
}
object line_spacing {
  name ID_54;
  distance_AN 36.0 in;
}
object line_spacing {
  name ID_55;
  distance_AB 48.0 in;
  distance_AN 36.0 in;
  distance_BN 36.0 in;
}
object line_spacing {
  name ID_56;
  distance_CN 36.0 in;
}
object line_configuration {
  name ID_24;
  conductor_B ID_537;
  conductor_N ID_537;
  spacing ID_52;
}
object line_configuration {
  name ID_25;
  conductor_A ID_538;
  conductor_B ID_538;
  conductor_C ID_538;
  conductor_N ID_538;
  spacing ID_53;
}
object line_configuration {
  name ID_26;
  conductor_A ID_537;
  conductor_B ID_537;
  conductor_C ID_537;
  conductor_N ID_537;
  spacing ID_53;
}
object line_configuration {
  name ID_27;
  conductor_A ID_537;
  conductor_N ID_537;
  spacing ID_54;
}
object line_configuration {
  name ID_28;
  conductor_B ID_539;
  conductor_N ID_539;
  spacing ID_52;
}
object line_configuration {
  name ID_29;
  conductor_B ID_540;
  conductor_N ID_540;
  spacing ID_52;
}
object line_configuration {
  name ID_30;
  conductor_A ID_538;
  conductor_N ID_538;
  spacing ID_54;
}
object line_configuration {
  name ID_31;
  conductor_A ID_538;
  conductor_B ID_538;
  conductor_N ID_538;
  spacing ID_55;
}
object line_configuration {
  name ID_32;
  conductor_A ID_538;
  conductor_N ID_538;
  spacing ID_54;
}
object line_configuration {
  name ID_33;
  conductor_A ID_540;
  conductor_B ID_540;
  conductor_C ID_540;
  conductor_N ID_540;
  spacing ID_53;
}
object line_configuration {
  name ID_34;
  conductor_B ID_541;
  conductor_N ID_541;
  spacing ID_52;
}
object line_configuration {
  name ID_35;
  conductor_A ID_538;
  conductor_B ID_538;
  conductor_C ID_538;
  conductor_N ID_538;
  spacing ID_53;
}
object line_configuration {
  name ID_36;
  conductor_C ID_542;
  conductor_N ID_542;
  spacing ID_56;
}
object line_configuration {
  name ID_37;
  conductor_A ID_541;
  conductor_B ID_541;
  conductor_C ID_541;
  conductor_N ID_541;
  spacing ID_53;
}
object line_configuration {
  name ID_38;
  conductor_A ID_543;
  conductor_B ID_543;
  conductor_C ID_543;
  conductor_N ID_543;
  spacing ID_53;
}
object line_configuration {
  name ID_39;
  conductor_A ID_544;
  conductor_B ID_544;
  conductor_C ID_544;
  conductor_N ID_544;
  spacing ID_53;
}
object line_configuration {
  name ID_40;
  conductor_A ID_538;
  conductor_B ID_538;
  conductor_C ID_538;
  conductor_N ID_538;
  spacing ID_53;
}
object line_configuration {
  name ID_41;
  conductor_C ID_786;
  conductor_N ID_786;
  spacing ID_56;
}
object line_configuration {
  name ID_42;
  conductor_A ID_786;
  conductor_B ID_786;
  conductor_C ID_786;
  conductor_N ID_786;
  spacing ID_53;
}
object line_configuration {
  name ID_43;
  conductor_A ID_786;
  conductor_N ID_786;
  spacing ID_54;
}
object line_configuration {
  name ID_44;
  conductor_A ID_787;
  conductor_B ID_787;
  conductor_C ID_787;
  conductor_N ID_787;
  spacing ID_53;
}
object line_configuration {
  name ID_45;
  conductor_A ID_788;
  conductor_B ID_788;
  conductor_C ID_788;
  conductor_N ID_788;
  spacing ID_53;
}
object line_configuration {
  name ID_46;
  conductor_A ID_789;
  conductor_B ID_789;
  conductor_C ID_789;
  conductor_N ID_789;
  spacing ID_53;
}
object line_configuration {
  name ID_47;
  conductor_B ID_786;
  conductor_N ID_786;
  spacing ID_52;
}
object line_configuration {
  name ID_48;
  conductor_C ID_787;
  conductor_N ID_787;
  spacing ID_56;
}
object line_configuration {
  name ID_49;
  conductor_A ID_545;
  conductor_B ID_545;
  conductor_C ID_545;
  conductor_N ID_545;
  spacing ID_53;
}
object line_configuration {
  name ID_50;
  conductor_B ID_545;
  conductor_N ID_545;
  spacing ID_52;
}
object line_configuration {
  name ID_51;
  conductor_A ID_790;
  conductor_B ID_790;
  conductor_C ID_790;
  conductor_N ID_790;
  spacing ID_53;
}
object triplex_line_conductor {
  name triplex_4/0 AA;
  resistance 0.48;
  geometric_mean_radius 0.0158;
  rating.summer.continuous 1000.0;
  rating.summer.emergency 1000.0;
  rating.winter.continuous 1000.0;
  rating.winter.emergency 1000.0;
}
object triplex_line_configuration {
  name ID_668;
  conductor_1 triplex_4/0 AA;
  conductor_2 triplex_4/0 AA;
  conductor_N triplex_4/0 AA;
  insulation_thickness 0.08;
  diameter 0.522;
}
object underground_line_conductor {
  name ID_786;
  rating.summer.continuous 142.0;
  outer_diameter 1.27;
  conductor_gmr 0.01142 ft;
  conductor_diameter 0.362;
  conductor_resistance 0.88704;
  neutral_gmr 0.00208 ft;
  neutral_resistance 14.87;
  neutral_diameter 0.0641;
  neutral_strands 16.0;
  insulation_relative_permitivitty 2.3;
}
object underground_line_conductor {
  name ID_787;
  rating.summer.continuous 112.0;
  outer_diameter 1.09;
  conductor_gmr 0.0088 ft;
  conductor_diameter 0.292;
  conductor_resistance 1.38336;
  neutral_gmr 0.00208 ft;
  neutral_resistance 14.87;
  neutral_diameter 0.0641;
  neutral_strands 6.0;
  insulation_relative_permitivitty 2.3;
}
object underground_line_conductor {
  name ID_788;
  rating.summer.continuous 214.0;
  outer_diameter 1.32;
  conductor_gmr 0.0177 ft;
  conductor_diameter 0.528;
  conductor_resistance 0.433488;
  neutral_gmr 0.00208 ft;
  neutral_resistance 14.87;
  neutral_diameter 0.0641;
  neutral_strands 11.0;
  insulation_relative_permitivitty 2.3;
}
object underground_line_conductor {
  name ID_789;
  rating.summer.continuous 775.0;
  outer_diameter 1.87;
  conductor_gmr 0.0371 ft;
  conductor_diameter 1.15;
  conductor_resistance 0.1162;
  shield_gmr 0.069167;
  shield_resistance 2.0135;
  shield_thickness 0.005;
  shield_diameter 1.66;
  insulation_relative_permitivitty 2.3;
}
object underground_line_conductor {
  name ID_790;
  rating.summer.continuous 425.0;
  outer_diameter 1.96;
  conductor_gmr 0.0321 ft;
  conductor_diameter 0.998;
  conductor_resistance 0.122496;
  neutral_gmr 0.00330 ft;
  neutral_resistance 5.9026;
  neutral_diameter 0.1019;
  neutral_strands 15.0;
  insulation_relative_permitivitty 2.3;
}
object fuse {
  name R3_12_47_2_fuse_1;
// downstream 131.11 kva on ABC
  phases ABCN;
  from R3_12_47_2_node_105;
  to R3_12_47_2_node_88;
  current_limit 40;
  status CLOSED;
  mean_replacement_time 3600;
}
object fuse {
  name R3_12_47_2_fuse_2;
// downstream 131.11 kva on ABC
  phases ABCN;
  from R3_12_47_2_node_88;
  to R3_12_47_2_node_87;
  current_limit 40;
  status CLOSED;
  mean_replacement_time 3600;
}
object fuse {
  name R3_12_47_2_fuse_3;
// downstream 22.82 kva on B
  phases BN;
  from R3_12_47_2_node_196;
  to R3_12_47_2_node_90;
  current_limit 40;
  status CLOSED;
  mean_replacement_time 3600;
}
object fuse {
  name R3_12_47_2_fuse_4;
// downstream 131.11 kva on ABC
  phases ABCN;
  from R3_12_47_2_node_201;
  to R3_12_47_2_node_81;
  current_limit 40;
  status CLOSED;
  mean_replacement_time 3600;
}
object fuse {
  name R3_12_47_2_fuse_5;
// downstream 131.11 kva on ABC
  phases ABCN;
  from R3_12_47_2_node_202;
  to R3_12_47_2_node_82;
  current_limit 40;
  status CLOSED;
  mean_replacement_time 3600;
}
object fuse {
  name R3_12_47_2_fuse_6;
// downstream 264.36 kva on ABC
  phases ABCN;
  from R3_12_47_2_node_227;
  to R3_12_47_2_node_84;
  current_limit 40;
  status CLOSED;
  mean_replacement_time 3600;
}
object fuse {
  name R3_12_47_2_fuse_7;
// downstream 6.71 kva on B
  phases BN;
  from R3_12_47_2_node_217;
  to R3_12_47_2_node_95;
  current_limit 40;
  status CLOSED;
  mean_replacement_time 3600;
}
object fuse {
  name R3_12_47_2_fuse_8;
// downstream 19.71 kva on ABC
  phases ABCN;
  from R3_12_47_2_node_198;
  to R3_12_47_2_node_91;
  current_limit 40;
  status CLOSED;
  mean_replacement_time 3600;
}
object fuse {
  name R3_12_47_2_fuse_9;
// downstream 229.40 kva on ABC
  phases ABCN;
  from R3_12_47_2_node_198;
  to R3_12_47_2_node_83;
  current_limit 40;
  status CLOSED;
  mean_replacement_time 3600;
}
object fuse {
  name R3_12_47_2_fuse_10;
// downstream 317.85 kva on ABC
  phases ABCN;
  from R3_12_47_2_node_209;
  to R3_12_47_2_node_85;
  current_limit 40;
  status CLOSED;
  mean_replacement_time 3600;
}
object fuse {
  name R3_12_47_2_fuse_11;
// downstream 317.85 kva on ABC
  phases ABCN;
  from R3_12_47_2_node_211;
  to R3_12_47_2_node_93;
  current_limit 40;
  status CLOSED;
  mean_replacement_time 3600;
}
object fuse {
  name R3_12_47_2_fuse_12;
// downstream 65.56 kva on ABC
  phases ABCN;
  from R3_12_47_2_node_184;
  to R3_12_47_2_node_89;
  current_limit 40;
  status CLOSED;
  mean_replacement_time 3600;
}
object fuse {
  name R3_12_47_2_fuse_13;
// downstream 161.66 kva on ABC
  phases ABCN;
  from R3_12_47_2_node_210;
  to R3_12_47_2_node_92;
  current_limit 40;
  status CLOSED;
  mean_replacement_time 3600;
}
object fuse {
  name R3_12_47_2_fuse_14;
// downstream 393.07 kva on ABC
  phases ABCN;
  from R3_12_47_2_node_213;
  to R3_12_47_2_node_94;
  current_limit 65;
  status CLOSED;
  mean_replacement_time 3600;
}
object fuse {
  name R3_12_47_2_fuse_15;
// downstream 89.58 kva on ABC
  phases ABCN;
  from R3_12_47_2_node_215;
  to R3_12_47_2_node_86;
  current_limit 40;
  status CLOSED;
  mean_replacement_time 3600;
}
object fuse {
  name R3_12_47_2_fuse_16;
// downstream 11.19 kva on B
  phases BN;
  from R3_12_47_2_node_115;
  to R3_12_47_2_node_80;
  current_limit 40;
  status CLOSED;
  mean_replacement_time 3600;
}
object fuse {
  name R3_12_47_2_fuse_17;
// downstream 3784.58 kva on ABC
  phases ABCN;
  from R3_12_47_2_node_128;
  to R3_12_47_2_node_73;
  current_limit 560;
  status CLOSED;
  mean_replacement_time 3600;
}
object fuse {
  name R3_12_47_2_fuse_18;
// downstream 436.60 kva on ABC
  phases ABCN;
  from R3_12_47_2_node_3;
  to R3_12_47_2_node_78;
  current_limit 65;
  status CLOSED;
  mean_replacement_time 3600;
}
object fuse {
  name R3_12_47_2_fuse_19;
// downstream 65.56 kva on ABC
  phases ABCN;
  from R3_12_47_2_node_2;
  to R3_12_47_2_node_79;
  current_limit 40;
  status CLOSED;
  mean_replacement_time 3600;
}
object fuse {
  name R3_12_47_2_fuse_20;
// downstream 4280.38 kva on ABC
  phases ABCN;
  from R3_12_47_2_node_6;
  to R3_12_47_2_node_72;
  current_limit 560;
  status CLOSED;
  mean_replacement_time 3600;
}
object fuse {
  name R3_12_47_2_fuse_21;
// downstream 275.58 kva on ABC
  phases ABCN;
  from R3_12_47_2_node_8;
  to R3_12_47_2_node_76;
  current_limit 40;
  status CLOSED;
  mean_replacement_time 3600;
}
object switch {
  name R3_12_47_2_switch_1;
  phases ABCN;
  from R3_12_47_2_node_186;
  to R3_12_47_2_node_263;
  status CLOSED;
}
object switch {
  name R3_12_47_2_switch_2;
// downstream 3701.89 kva on ABC
  phases ABCN;
  from R3_12_47_2_node_188;
  to R3_12_47_2_node_252;
  status CLOSED;
}
object switch {
  name R3_12_47_2_switch_3;
  phases ABCN;
  from R3_12_47_2_node_189;
  to R3_12_47_2_node_260;
  status CLOSED;
}
object switch {
  name R3_12_47_2_switch_4;
// downstream 3701.89 kva on ABC
  phases ABCN;
  from R3_12_47_2_node_223;
  to R3_12_47_2_node_261;
  status CLOSED;
}
object switch {
  name R3_12_47_2_switch_5;
// downstream 3525.15 kva on ABC
  phases ABCN;
  from R3_12_47_2_node_195;
  to R3_12_47_2_node_256;
  status CLOSED;
}
object switch {
  name R3_12_47_2_switch_6;
  phases ABCN;
  from R3_12_47_2_node_189;
  to R3_12_47_2_node_229;
  status CLOSED;
}
object switch {
  name R3_12_47_2_switch_7;
// downstream 655.55 kva on ABC
  phases ABCN;
  from R3_12_47_2_node_220;
  to R3_12_47_2_node_254;
  status CLOSED;
}
object switch {
  name R3_12_47_2_switch_8;
  phases ABCN;
  from R3_12_47_2_node_222;
  to R3_12_47_2_node_228;
  status CLOSED;
}
object switch {
  name R3_12_47_2_switch_9;
// downstream 3784.58 kva on ABC
  phases ABCN;
  from R3_12_47_2_node_164;
  to R3_12_47_2_node_249;
  status CLOSED;
}
object switch {
  name R3_12_47_2_switch_10;
  phases ABCN;
  from R3_12_47_2_node_162;
  to R3_12_47_2_node_262;
  status CLOSED;
}
object switch {
  name R3_12_47_2_switch_11;
  phases ABCN;
  from R3_12_47_2_node_208;
  to R3_12_47_2_node_251;
  status CLOSED;
}
object switch {
  name R3_12_47_2_switch_12;
// downstream 4555.97 kva on ABC
  phases ABCN;
  from R3_12_47_2_node_1;
  to R3_12_47_2_node_253;
  status CLOSED;
}
object switch {
  name R3_12_47_2_switch_13;
  phases ABCN;
  from R3_12_47_2_node_181;
  to R3_12_47_2_node_255;
  status CLOSED;
}
object switch {
  name R3_12_47_2_switch_14;
// downstream 4555.97 kva on ABC
  phases ABCN;
  from R3_12_47_2_node_182;
  to R3_12_47_2_node_259;
  status CLOSED;
}
object switch {
  name R3_12_47_2_switch_15;
// downstream 3719.02 kva on ABC
  phases ABCN;
  from R3_12_47_2_node_185;
  to R3_12_47_2_node_250;
  status CLOSED;
}
object switch {
  name R3_12_47_2_switch_16;
// downstream 4555.97 kva on ABC
  phases ABCN;
  from R3_12_47_2_node_163;
  to R3_12_47_2_node_231;
  status CLOSED;
}
object switch {
  name R3_12_47_2_switch_17;
  phases ABCN;
  from R3_12_47_2_node_242;
  to R3_12_47_2_node_264;
  status CLOSED;
}
object switch {
  name R3_12_47_2_switch_18;
// downstream 4280.38 kva on ABC
  phases ABCN;
  from R3_12_47_2_node_177;
  to R3_12_47_2_node_240;
  status CLOSED;
}
object switch {
  name R3_12_47_2_switch_19;
// downstream 4280.38 kva on ABC
  phases ABCN;
  from R3_12_47_2_node_176;
  to R3_12_47_2_node_236;
  status CLOSED;
}
object switch {
  name R3_12_47_2_switch_20;
  phases ABCN;
  from R3_12_47_2_node_221;
  to R3_12_47_2_node_230;
  status CLOSED;
}
object switch {
  name R3_12_47_2_switch_21;
// downstream 4555.97 kva on ABC
  phases ABCN;
  from R3_12_47_2_node_232;
  to R3_12_47_2_node_244;
  status CLOSED;
}
object switch {
  name R3_12_47_2_switch_22;
  phases ABCN;
  from R3_12_47_2_node_118;
  to R3_12_47_2_node_257;
  status CLOSED;
}
object switch {
  name R3_12_47_2_switch_23;
  phases ABCN;
  from R3_12_47_2_node_126;
  to R3_12_47_2_node_258;
  status CLOSED;
}
object switch {
  name R3_12_47_2_switch_24;
// downstream 4280.38 kva on ABC
  phases ABCN;
  from R3_12_47_2_node_136;
  to R3_12_47_2_node_245;
  status CLOSED;
}
object switch {
  name R3_12_47_2_switch_25;
  phases ABCN;
  from R3_12_47_2_node_247;
  to R3_12_47_2_node_266;
  status CLOSED;
}
object switch {
  name R3_12_47_2_switch_26;
// downstream 89.58 kva on ABC
  phases ABCN;
  from R3_12_47_2_node_97;
  to R3_12_47_2_node_246;
  status CLOSED;
}
object switch {
  name R3_12_47_2_switch_27;
  phases ABCN;
  from R3_12_47_2_node_151;
  to R3_12_47_2_node_248;
  status CLOSED;
}
object switch {
  name R3_12_47_2_switch_28;
  phases ABCN;
  from R3_12_47_2_node_4;
  to R3_12_47_2_node_234;
  status CLOSED;
}
object switch {
  name R3_12_47_2_switch_29;
// downstream 4555.97 kva on ABC
  phases ABCN;
  from R3_12_47_2_node_4;
  to R3_12_47_2_node_232;
  status CLOSED;
}
object switch {
  name R3_12_47_2_switch_30;
  phases ABCN;
  from R3_12_47_2_node_5;
  to R3_12_47_2_node_238;
  status CLOSED;
}
object switch {
  name R3_12_47_2_switch_31;
  phases ABCN;
  from R3_12_47_2_node_5;
  to R3_12_47_2_node_235;
  status CLOSED;
}
object switch {
  name R3_12_47_2_switch_32;
// downstream 4280.38 kva on ABC
  phases ABCN;
  from R3_12_47_2_node_5;
  to R3_12_47_2_node_237;
  status CLOSED;
}
object switch {
  name R3_12_47_2_switch_33;
  phases ABCN;
  from R3_12_47_2_node_6;
  to R3_12_47_2_node_239;
  status CLOSED;
}
object switch {
  name R3_12_47_2_switch_34;
// downstream 3784.58 kva on ABC
  phases ABCN;
  from R3_12_47_2_node_7;
  to R3_12_47_2_node_241;
  status CLOSED;
}
object switch {
  name R3_12_47_2_switch_35;
// downstream 4280.38 kva on ABC
  phases ABCN;
  from R3_12_47_2_node_8;
  to R3_12_47_2_node_243;
  status CLOSED;
}
object switch {
  name R3_12_47_2_switch_36;
  phases ABCN;
  from R3_12_47_2_node_4;
  to R3_12_47_2_node_233;
  status CLOSED;
}
object recloser {
  name R3_12_47_2_recloser_1;
// downstream 906.41 kva on ABC
  phases ABCN;
  from R3_12_47_2_node_219;
  to R3_12_47_2_node_74;
  status CLOSED;
  operating_mode INDIVIDUAL;
  phase_A_state CLOSED;
  phase_B_state CLOSED;
  phase_C_state CLOSED;
  retry_time 1.0 s;
  max_number_of_tries 3;
  number_of_tries 0;
}
object recloser {
  name R3_12_47_2_recloser_2;
// downstream 874.07 kva on ABC
  phases ABCN;
  from R3_12_47_2_node_220;
  to R3_12_47_2_node_77;
  status CLOSED;
  operating_mode INDIVIDUAL;
  phase_A_state CLOSED;
  phase_B_state CLOSED;
  phase_C_state CLOSED;
  retry_time 1.0 s;
  max_number_of_tries 3;
  number_of_tries 0;
}
object recloser {
  name R3_12_47_2_recloser_3;
// downstream 655.55 kva on ABC
  phases ABCN;
  from R3_12_47_2_node_222;
  to R3_12_47_2_node_75;
  status CLOSED;
  operating_mode INDIVIDUAL;
  phase_A_state CLOSED;
  phase_B_state CLOSED;
  phase_C_state CLOSED;
  retry_time 1.0 s;
  max_number_of_tries 3;
  number_of_tries 0;
}
object overhead_line {
  name R3_12_47_2_ol_1;
// downstream 6.71 kva on B
  phases BN;
  from R3_12_47_2_node_103;
  to R3_12_47_2_node_71;
  length 25.994;
  configuration ID_24;
}
object overhead_line {
  name R3_12_47_2_ol_2;
// downstream 11.63 kva on B
  phases BN;
  from R3_12_47_2_node_103;
  to R3_12_47_2_node_166;
  length 285.282;
  configuration ID_24;
}
object overhead_line {
  name R3_12_47_2_ol_3;
// downstream 18.35 kva on B
  phases BN;
  from R3_12_47_2_node_194;
  to R3_12_47_2_node_103;
  length 937.674;
  configuration ID_24;
}
object overhead_line {
  name R3_12_47_2_ol_4;
// downstream 3701.89 kva on ABC
  phases ABCN;
  from R3_12_47_2_node_261;
  to R3_12_47_2_node_105;
  length 38.064;
  configuration ID_25;
}
object overhead_line {
  name R3_12_47_2_ol_5;
// downstream 3570.78 kva on ABC
  phases ABCN;
  from R3_12_47_2_node_105;
  to R3_12_47_2_node_191;
  length 120.922;
  configuration ID_25;
}
object overhead_line {
  name R3_12_47_2_ol_6;
// downstream 131.11 kva on ABC
  phases ABCN;
  from R3_12_47_2_node_87;
  to R3_12_47_2_node_106;
  length 16.468;
  configuration ID_26;
}
object overhead_line {
  name R3_12_47_2_ol_7;
// downstream 6.42 kva on A
  phases AN;
  from R3_12_47_2_node_187;
  to R3_12_47_2_node_50;
  length 42.258;
  configuration ID_27;
}
object overhead_line {
  name R3_12_47_2_ol_8;
// downstream 10.71 kva on A
  phases AN;
  from R3_12_47_2_node_188;
  to R3_12_47_2_node_52;
  length 36.973;
  configuration ID_27;
}
object overhead_line {
  name R3_12_47_2_ol_9;
  phases BN;
  from R3_12_47_2_node_109;
  to R3_12_47_2_node_104;
  length 153.784;
  configuration ID_28;
}
object overhead_line {
  name R3_12_47_2_ol_10;
// downstream 0.45 kva on B
  phases BN;
  from R3_12_47_2_node_190;
  to R3_12_47_2_node_109;
  length 558.400;
  configuration ID_28;
}
object overhead_line {
  name R3_12_47_2_ol_11;
// downstream 0.45 kva on B
  phases BN;
  from R3_12_47_2_node_109;
  to R3_12_47_2_node_12;
  length 20.258;
  configuration ID_29;
}
object overhead_line {
  name R3_12_47_2_ol_12;
// downstream 11.19 kva on B
  phases BN;
  from R3_12_47_2_node_190;
  to R3_12_47_2_node_39;
  length 37.479;
  configuration ID_28;
}
object overhead_line {
  name R3_12_47_2_ol_13;
// downstream 11.63 kva on B
  phases BN;
  from R3_12_47_2_node_166;
  to R3_12_47_2_node_190;
  length 360.665;
  configuration ID_28;
}
object overhead_line {
  name R3_12_47_2_ol_14;
// downstream 6.42 kva on A
  phases AN;
  from R3_12_47_2_node_191;
  to R3_12_47_2_node_40;
  length 30.421;
  configuration ID_30;
}
object overhead_line {
  name R3_12_47_2_ol_15;
// downstream 6.42 kva on A
  phases AN;
  from R3_12_47_2_node_193;
  to R3_12_47_2_node_53;
  length 27.536;
  configuration ID_30;
}
object overhead_line {
  name R3_12_47_2_ol_16;
// downstream 4.47 kva on B
  phases BN;
  from R3_12_47_2_node_194;
  to R3_12_47_2_node_54;
  length 39.715;
  configuration ID_24;
}
object overhead_line {
  name R3_12_47_2_ol_17;
// downstream 32.78 kva on ABC
  phases ABCN;
  from R3_12_47_2_node_195;
  to R3_12_47_2_node_55;
  length 26.074;
  configuration ID_25;
}
object overhead_line {
  name R3_12_47_2_ol_18;
// downstream 22.82 kva on B
  phases BN;
  from R3_12_47_2_node_90;
  to R3_12_47_2_node_194;
  length 461.911;
  configuration ID_24;
}
object overhead_line {
  name R3_12_47_2_ol_19;
// downstream 17.51 kva on AB
  phases ABN;
  from R3_12_47_2_node_197;
  to R3_12_47_2_node_56;
  length 29.182;
  configuration ID_31;
}
object overhead_line {
  name R3_12_47_2_ol_20;
// downstream 131.11 kva on ABC
  phases ABCN;
  from R3_12_47_2_node_81;
  to R3_12_47_2_node_225;
  length 12.500;
  configuration ID_26;
}
object overhead_line {
  name R3_12_47_2_ol_21;
// downstream 6.42 kva on A
  phases AN;
  from R3_12_47_2_node_200;
  to R3_12_47_2_node_57;
  length 46.779;
  configuration ID_32;
}
object overhead_line {
  name R3_12_47_2_ol_22;
// downstream 17.51 kva on AB
  phases ABN;
  from R3_12_47_2_node_199;
  to R3_12_47_2_node_58;
  length 29.025;
  configuration ID_31;
}
object overhead_line {
  name R3_12_47_2_ol_23;
// downstream 2.14 kva on A
  phases AN;
  from R3_12_47_2_node_201;
  to R3_12_47_2_node_41;
  length 41.460;
  configuration ID_27;
}
object overhead_line {
  name R3_12_47_2_ol_24;
// downstream 133.25 kva on ABC
  phases ABCN;
  from R3_12_47_2_node_202;
  to R3_12_47_2_node_201;
  length 130.832;
  configuration ID_26;
}
object overhead_line {
  name R3_12_47_2_ol_25;
// downstream 19.67 kva on ABC
  phases ABCN;
  from R3_12_47_2_node_203;
  to R3_12_47_2_node_59;
  length 30.822;
  configuration ID_33;
}
object overhead_line {
  name R3_12_47_2_ol_26;
// downstream 131.11 kva on ABC
  phases ABCN;
  from R3_12_47_2_node_82;
  to R3_12_47_2_node_226;
  length 12.500;
  configuration ID_26;
}
object overhead_line {
  name R3_12_47_2_ol_27;
// downstream 264.36 kva on ABC
  phases ABCN;
  from R3_12_47_2_node_84;
  to R3_12_47_2_node_202;
  length 81.944;
  configuration ID_26;
}
object overhead_line {
  name R3_12_47_2_ol_28;
// downstream 30.55 kva on ABC
  phases ABCN;
  from R3_12_47_2_node_204;
  to R3_12_47_2_node_203;
  length 126.574;
  configuration ID_33;
}
object overhead_line {
  name R3_12_47_2_ol_29;
// downstream 65.56 kva on ABC
  phases ABCN;
  from R3_12_47_2_node_204;
  to R3_12_47_2_node_61;
  length 30.169;
  configuration ID_33;
}
object overhead_line {
  name R3_12_47_2_ol_30;
// downstream 6.71 kva on B
  phases BN;
  from R3_12_47_2_node_205;
  to R3_12_47_2_node_62;
  length 34.785;
  configuration ID_34;
}
object overhead_line {
  name R3_12_47_2_ol_31;
// downstream 96.11 kva on ABC
  phases ABCN;
  from R3_12_47_2_node_206;
  to R3_12_47_2_node_204;
  length 171.756;
  configuration ID_33;
}
object overhead_line {
  name R3_12_47_2_ol_32;
// downstream 65.56 kva on ABC
  phases ABCN;
  from R3_12_47_2_node_206;
  to R3_12_47_2_node_63;
  length 30.399;
  configuration ID_33;
}
object overhead_line {
  name R3_12_47_2_ol_33;
// downstream 32.78 kva on ABC
  phases ABCN;
  from R3_12_47_2_node_207;
  to R3_12_47_2_node_64;
  length 29.581;
  configuration ID_26;
}
object overhead_line {
  name R3_12_47_2_ol_34;
  phases ABCN;
  from R3_12_47_2_node_209;
  to R3_12_47_2_node_102;
  length 155.863;
  configuration ID_35;
}
object overhead_line {
  name R3_12_47_2_ol_35;
// downstream 161.66 kva on ABC
  phases ABCN;
  from R3_12_47_2_node_92;
  to R3_12_47_2_node_206;
  length 168.252;
  configuration ID_33;
}
object overhead_line {
  name R3_12_47_2_ol_36;
// downstream 65.56 kva on ABC
  phases ABCN;
  from R3_12_47_2_node_214;
  to R3_12_47_2_node_65;
  length 35.295;
  configuration ID_35;
}
object overhead_line {
  name R3_12_47_2_ol_37;
// downstream 19.67 kva on ABC
  phases ABCN;
  from R3_12_47_2_node_216;
  to R3_12_47_2_node_66;
  length 30.076;
  configuration ID_35;
}
object overhead_line {
  name R3_12_47_2_ol_38;
// downstream 6.71 kva on B
  phases BN;
  from R3_12_47_2_node_95;
  to R3_12_47_2_node_67;
  length 339.084;
  configuration ID_29;
}
object overhead_line {
  name R3_12_47_2_ol_39;
// downstream 10.88 kva on C
  phases CN;
  from R3_12_47_2_node_203;
  to R3_12_47_2_node_60;
  length 321.665;
  configuration ID_36;
}
object overhead_line {
  name R3_12_47_2_ol_40;
// downstream 4555.97 kva on ABC
  phases ABCN;
  from R3_12_47_2_node_259;
  to R3_12_47_2_node_163;
  length 12.500;
  configuration ID_25;
}
object overhead_line {
  name R3_12_47_2_ol_41;
// downstream 19.71 kva on ABC
  phases ABCN;
  from R3_12_47_2_node_91;
  to R3_12_47_2_node_224;
  length 12.120;
  configuration ID_37;
}
object overhead_line {
  name R3_12_47_2_ol_42;
// downstream 249.11 kva on ABC
  phases ABCN;
  from R3_12_47_2_node_196;
  to R3_12_47_2_node_198;
  length 186.190;
  configuration ID_38;
}
object overhead_line {
  name R3_12_47_2_ol_43;
// downstream 271.93 kva on ABC
  phases ABCN;
  from R3_12_47_2_node_200;
  to R3_12_47_2_node_196;
  length 577.319;
  configuration ID_26;
}
object overhead_line {
  name R3_12_47_2_ol_44;
// downstream 229.40 kva on ABC
  phases ABCN;
  from R3_12_47_2_node_83;
  to R3_12_47_2_node_165;
  length 13.823;
  configuration ID_38;
}
object overhead_line {
  name R3_12_47_2_ol_45;
// downstream 278.36 kva on ABC
  phases ABCN;
  from R3_12_47_2_node_205;
  to R3_12_47_2_node_200;
  length 279.715;
  configuration ID_26;
}
object overhead_line {
  name R3_12_47_2_ol_46;
// downstream 285.07 kva on ABC
  phases ABCN;
  from R3_12_47_2_node_207;
  to R3_12_47_2_node_205;
  length 178.841;
  configuration ID_26;
}
object overhead_line {
  name R3_12_47_2_ol_47;
// downstream 317.85 kva on ABC
  phases ABCN;
  from R3_12_47_2_node_85;
  to R3_12_47_2_node_207;
  length 115.104;
  configuration ID_26;
}
object overhead_line {
  name R3_12_47_2_ol_48;
// downstream 317.85 kva on ABC
  phases ABCN;
  from R3_12_47_2_node_93;
  to R3_12_47_2_node_209;
  length 167.932;
  configuration ID_35;
}
object overhead_line {
  name R3_12_47_2_ol_49;
// downstream 3719.02 kva on ABC
  phases ABCN;
  from R3_12_47_2_node_184;
  to R3_12_47_2_node_185;
  length 109.840;
  configuration ID_35;
}
object overhead_line {
  name R3_12_47_2_ol_50;
  phases ABCN;
  from R3_12_47_2_node_185;
  to R3_12_47_2_node_101;
  length 455.693;
  configuration ID_35;
}
object overhead_line {
  name R3_12_47_2_ol_51;
// downstream 3784.58 kva on ABC
  phases ABCN;
  from R3_12_47_2_node_249;
  to R3_12_47_2_node_184;
  length 198.377;
  configuration ID_35;
}
object overhead_line {
  name R3_12_47_2_ol_52;
// downstream 3719.02 kva on ABC
  phases ABCN;
  from R3_12_47_2_node_186;
  to R3_12_47_2_node_187;
  length 193.753;
  configuration ID_35;
}
object overhead_line {
  name R3_12_47_2_ol_53;
// downstream 3712.60 kva on ABC
  phases ABCN;
  from R3_12_47_2_node_187;
  to R3_12_47_2_node_188;
  length 1080.546;
  configuration ID_35;
}
object overhead_line {
  name R3_12_47_2_ol_54;
  phases ABCN;
  from R3_12_47_2_node_260;
  to R3_12_47_2_node_218;
  length 12.500;
  configuration ID_35;
}
object overhead_line {
  name R3_12_47_2_ol_55;
// downstream 3564.36 kva on ABC
  phases ABCN;
  from R3_12_47_2_node_191;
  to R3_12_47_2_node_193;
  length 589.858;
  configuration ID_25;
}
object overhead_line {
  name R3_12_47_2_ol_56;
// downstream 3557.93 kva on ABC
  phases ABCN;
  from R3_12_47_2_node_193;
  to R3_12_47_2_node_195;
  length 436.671;
  configuration ID_25;
}
object overhead_line {
  name R3_12_47_2_ol_57;
// downstream 3525.15 kva on ABC
  phases ABCN;
  from R3_12_47_2_node_256;
  to R3_12_47_2_node_197;
  length 208.867;
  configuration ID_25;
}
object overhead_line {
  name R3_12_47_2_ol_58;
// downstream 3507.64 kva on ABC
  phases ABCN;
  from R3_12_47_2_node_197;
  to R3_12_47_2_node_199;
  length 452.186;
  configuration ID_25;
}
object overhead_line {
  name R3_12_47_2_ol_59;
// downstream 3490.12 kva on ABC
  phases ABCN;
  from R3_12_47_2_node_199;
  to R3_12_47_2_node_210;
  length 678.426;
  configuration ID_25;
}
object overhead_line {
  name R3_12_47_2_ol_60;
// downstream 89.58 kva on ABC
  phases ABCN;
  from R3_12_47_2_node_86;
  to R3_12_47_2_node_97;
  length 12.476;
  configuration ID_35;
}
object overhead_line {
  name R3_12_47_2_ol_61;
// downstream 2753.88 kva on ABC
  phases ABCN;
  from R3_12_47_2_node_213;
  to R3_12_47_2_node_211;
  length 313.916;
  configuration ID_35;
}
object overhead_line {
  name R3_12_47_2_ol_62;
// downstream 3146.95 kva on ABC
  phases ABCN;
  from R3_12_47_2_node_215;
  to R3_12_47_2_node_213;
  length 377.562;
  configuration ID_35;
}
object overhead_line {
  name R3_12_47_2_ol_63;
// downstream 3236.53 kva on ABC
  phases ABCN;
  from R3_12_47_2_node_214;
  to R3_12_47_2_node_215;
  length 50.699;
  configuration ID_35;
}
object overhead_line {
  name R3_12_47_2_ol_64;
// downstream 3302.08 kva on ABC
  phases ABCN;
  from R3_12_47_2_node_216;
  to R3_12_47_2_node_214;
  length 223.552;
  configuration ID_35;
}
object overhead_line {
  name R3_12_47_2_ol_65;
// downstream 3328.46 kva on ABC
  phases ABCN;
  from R3_12_47_2_node_210;
  to R3_12_47_2_node_217;
  length 220.248;
  configuration ID_25;
}
object overhead_line {
  name R3_12_47_2_ol_66;
// downstream 2436.04 kva on ABC
  phases ABCN;
  from R3_12_47_2_node_211;
  to R3_12_47_2_node_219;
  length 191.025;
  configuration ID_35;
}
object overhead_line {
  name R3_12_47_2_ol_67;
// downstream 906.41 kva on ABC
  phases ABCN;
  from R3_12_47_2_node_74;
  to R3_12_47_2_node_98;
  length 13.885;
  configuration ID_35;
}
object overhead_line {
  name R3_12_47_2_ol_68;
// downstream 1529.62 kva on ABC
  phases ABCN;
  from R3_12_47_2_node_219;
  to R3_12_47_2_node_220;
  length 60.596;
  configuration ID_35;
}
object overhead_line {
  name R3_12_47_2_ol_69;
// downstream 874.07 kva on ABC
  phases ABCN;
  from R3_12_47_2_node_77;
  to R3_12_47_2_node_99;
  length 13.339;
  configuration ID_35;
}
object overhead_line {
  name R3_12_47_2_ol_70;
// downstream 655.55 kva on ABC
  phases ABCN;
  from R3_12_47_2_node_75;
  to R3_12_47_2_node_100;
  length 11.751;
  configuration ID_35;
}
object overhead_line {
  name R3_12_47_2_ol_71;
// downstream 655.55 kva on ABC
  phases ABCN;
  from R3_12_47_2_node_254;
  to R3_12_47_2_node_222;
  length 175.871;
  configuration ID_35;
}
object overhead_line {
  name R3_12_47_2_ol_72;
  phases ABCN;
  from R3_12_47_2_node_251;
  to R3_12_47_2_node_189;
  length 296.257;
  configuration ID_35;
}
object overhead_line {
  name R3_12_47_2_ol_73;
// downstream 3321.75 kva on ABC
  phases ABCN;
  from R3_12_47_2_node_217;
  to R3_12_47_2_node_216;
  length 304.754;
  configuration ID_25;
}
object overhead_line {
  name R3_12_47_2_ol_74;
// downstream 3701.89 kva on ABC
  phases ABCN;
  from R3_12_47_2_node_252;
  to R3_12_47_2_node_212;
  length 14.459;
  configuration ID_35;
}
object overhead_line {
  name R3_12_47_2_ol_75;
// downstream 65.56 kva on ABC
  phases ABCN;
  from R3_12_47_2_node_89;
  to R3_12_47_2_node_192;
  length 12.178;
  configuration ID_35;
}
object overhead_line {
  name R3_12_47_2_ol_76;
// downstream 4555.97 kva on ABC
  phases ABCN;
  from R3_12_47_2_node_253;
  to R3_12_47_2_node_181;
  length 13.728;
  configuration ID_40;
}
object overhead_line {
  name R3_12_47_2_ol_77;
// downstream 4555.97 kva on ABC
  phases ABCN;
  from R3_12_47_2_node_181;
  to R3_12_47_2_node_182;
  length 9.327;
  configuration ID_25;
}
object overhead_line {
  name R3_12_47_2_ol_78;
// downstream 3719.02 kva on ABC
  phases ABCN;
  from R3_12_47_2_node_250;
  to R3_12_47_2_node_186;
  length 161.084;
  configuration ID_35;
}
object overhead_line {
  name R3_12_47_2_ol_79;
// downstream 436.60 kva on ABC
  phases ABCN;
  from R3_12_47_2_node_178;
  to R3_12_47_2_node_3;
  length 12.500;
  configuration ID_49;
}
object overhead_line {
  name R3_12_47_2_ol_80;
// downstream 65.56 kva on ABC
  phases ABCN;
  from R3_12_47_2_node_179;
  to R3_12_47_2_node_2;
  length 12.500;
  configuration ID_49;
}
object overhead_line {
  name R3_12_47_2_ol_81;
// downstream 4555.97 kva on ABC
  phases ABCN;
  from R3_12_47_2_node_231;
  to R3_12_47_2_node_4;
  length 12.500;
  configuration ID_49;
}
object overhead_line {
  name R3_12_47_2_ol_82;
// downstream 4280.38 kva on ABC
  phases ABCN;
  from R3_12_47_2_node_236;
  to R3_12_47_2_node_5;
  length 12.500;
  configuration ID_49;
}
object overhead_line {
  name R3_12_47_2_ol_83;
// downstream 4280.38 kva on ABC
  phases ABCN;
  from R3_12_47_2_node_240;
  to R3_12_47_2_node_6;
  length 12.499;
  configuration ID_49;
}
object overhead_line {
  name R3_12_47_2_ol_84;
  phases ABCN;
  from R3_12_47_2_node_7;
  to R3_12_47_2_node_242;
  length 11.996;
  configuration ID_49;
}
object overhead_line {
  name R3_12_47_2_ol_85;
// downstream 3784.58 kva on ABC
  phases ABCN;
  from R3_12_47_2_node_73;
  to R3_12_47_2_node_7;
  length 12.500;
  configuration ID_49;
}
object overhead_line {
  name R3_12_47_2_ol_86;
// downstream 4555.97 kva on ABC
  phases ABCN;
  from R3_12_47_2_node_244;
  to R3_12_47_2_node_8;
  length 12.973;
  configuration ID_49;
}
object overhead_line {
  name R3_12_47_2_ol_87;
// downstream 11.19 kva on B
  phases BN;
  from R3_12_47_2_node_80;
  to R3_12_47_2_node_9;
  length 12.500;
  configuration ID_50;
}
object overhead_line {
  name R3_12_47_2_ol_88;
// downstream 11.19 kva on B
  phases BN;
  from R3_12_47_2_node_9;
  to R3_12_47_2_node_180;
  length 12.500;
  configuration ID_50;
}
object underground_line {
  name R3_12_47_2_ul_1;
// downstream 10.88 kva on C
  phases CN;
  from R3_12_47_2_node_183;
  to R3_12_47_2_node_51;
  length 321.180;
  configuration ID_41;
}
object underground_line {
  name R3_12_47_2_ul_2;
// downstream 19.67 kva on ABC
  phases ABCN;
  from R3_12_47_2_node_135;
  to R3_12_47_2_node_68;
  length 269.966;
  configuration ID_42;
}
object underground_line {
  name R3_12_47_2_ul_3;
// downstream 65.56 kva on ABC
  phases ABCN;
  from R3_12_47_2_node_130;
  to R3_12_47_2_node_69;
  length 141.727;
  configuration ID_42;
}
object underground_line {
  name R3_12_47_2_ul_4;
// downstream 10.71 kva on A
  phases AN;
  from R3_12_47_2_node_129;
  to R3_12_47_2_node_70;
  length 38.371;
  configuration ID_43;
}
object underground_line {
  name R3_12_47_2_ul_5;
// downstream 131.11 kva on ABC
  phases ABCN;
  from R3_12_47_2_node_226;
  to R3_12_47_2_node_45;
  length 84.624;
  configuration ID_44;
}
object underground_line {
  name R3_12_47_2_ul_6;
// downstream 436.60 kva on ABC
  phases ABCN;
  from R3_12_47_2_node_78;
  to R3_12_47_2_node_48;
  length 58.263;
  configuration ID_44;
}
object underground_line {
  name R3_12_47_2_ul_7;
// downstream 131.11 kva on ABC
  phases ABCN;
  from R3_12_47_2_node_106;
  to R3_12_47_2_node_108;
  length 37.481;
  configuration ID_45;
}
object underground_line {
  name R3_12_47_2_ul_8;
// downstream 131.11 kva on ABC
  phases ABCN;
  from R3_12_47_2_node_108;
  to R3_12_47_2_node_107;
  length 675.315;
  configuration ID_45;
}
object underground_line {
  name R3_12_47_2_ul_9;
// downstream 131.11 kva on ABC
  phases ABCN;
  from R3_12_47_2_node_107;
  to R3_12_47_2_node_10;
  length 32.855;
  configuration ID_42;
}
object underground_line {
  name R3_12_47_2_ul_10;
  phases ABCN;
  from R3_12_47_2_node_233;
  to R3_12_47_2_node_162;
  length 120.805;
  configuration ID_46;
}
object underground_line {
  name R3_12_47_2_ul_11;
// downstream 4280.38 kva on ABC
  phases ABCN;
  from R3_12_47_2_node_243;
  to R3_12_47_2_node_168;
  length 743.354;
  configuration ID_46;
}
object underground_line {
  name R3_12_47_2_ul_12;
// downstream 4280.38 kva on ABC
  phases ABCN;
  from R3_12_47_2_node_168;
  to R3_12_47_2_node_169;
  length 704.286;
  configuration ID_46;
}
object underground_line {
  name R3_12_47_2_ul_13;
// downstream 4280.38 kva on ABC
  phases ABCN;
  from R3_12_47_2_node_169;
  to R3_12_47_2_node_158;
  length 290.080;
  configuration ID_46;
}
object underground_line {
  name R3_12_47_2_ul_14;
// downstream 4280.38 kva on ABC
  phases ABCN;
  from R3_12_47_2_node_158;
  to R3_12_47_2_node_170;
  length 640.203;
  configuration ID_46;
}
object underground_line {
  name R3_12_47_2_ul_15;
// downstream 4280.38 kva on ABC
  phases ABCN;
  from R3_12_47_2_node_170;
  to R3_12_47_2_node_171;
  length 811.148;
  configuration ID_46;
}
object underground_line {
  name R3_12_47_2_ul_16;
// downstream 3784.58 kva on ABC
  phases ABCN;
  from R3_12_47_2_node_241;
  to R3_12_47_2_node_159;
  length 45.815;
  configuration ID_46;
}
object underground_line {
  name R3_12_47_2_ul_17;
// downstream 3784.58 kva on ABC
  phases ABCN;
  from R3_12_47_2_node_159;
  to R3_12_47_2_node_164;
  length 655.081;
  configuration ID_46;
}
object underground_line {
  name R3_12_47_2_ul_18;
// downstream 4280.38 kva on ABC
  phases ABCN;
  from R3_12_47_2_node_171;
  to R3_12_47_2_node_173;
  length 565.359;
  configuration ID_46;
}
object underground_line {
  name R3_12_47_2_ul_19;
  phases ABCN;
  from R3_12_47_2_node_175;
  to R3_12_47_2_node_172;
  length 949.649;
  configuration ID_46;
}
object underground_line {
  name R3_12_47_2_ul_20;
// downstream 4280.38 kva on ABC
  phases ABCN;
  from R3_12_47_2_node_173;
  to R3_12_47_2_node_176;
  length 426.443;
  configuration ID_46;
}
object underground_line {
  name R3_12_47_2_ul_21;
  phases ABCN;
  from R3_12_47_2_node_239;
  to R3_12_47_2_node_160;
  length 30.097;
  configuration ID_46;
}
object underground_line {
  name R3_12_47_2_ul_22;
// downstream 4280.38 kva on ABC
  phases ABCN;
  from R3_12_47_2_node_237;
  to R3_12_47_2_node_177;
  length 732.101;
  configuration ID_46;
}
object underground_line {
  name R3_12_47_2_ul_23;
  phases ABCN;
  from R3_12_47_2_node_160;
  to R3_12_47_2_node_167;
  length 304.118;
  configuration ID_46;
}
object underground_line {
  name R3_12_47_2_ul_24;
// downstream 10.71 kva on A
  phases AN;
  from R3_12_47_2_node_128;
  to R3_12_47_2_node_11;
  length 26.917;
  configuration ID_43;
}
object underground_line {
  name R3_12_47_2_ul_25;
  phases ABCN;
  from R3_12_47_2_node_167;
  to R3_12_47_2_node_208;
  length 154.665;
  configuration ID_46;
}
object underground_line {
  name R3_12_47_2_ul_26;
  phases ABCN;
  from R3_12_47_2_node_153;
  to R3_12_47_2_node_152;
  length 629.714;
  configuration ID_46;
}
object underground_line {
  name R3_12_47_2_ul_27;
// downstream 3701.89 kva on ABC
  phases ABCN;
  from R3_12_47_2_node_212;
  to R3_12_47_2_node_154;
  length 55.974;
  configuration ID_46;
}
object underground_line {
  name R3_12_47_2_ul_28;
  phases ABCN;
  from R3_12_47_2_node_155;
  to R3_12_47_2_node_161;
  length 593.170;
  configuration ID_46;
}
object underground_line {
  name R3_12_47_2_ul_29;
// downstream 32.78 kva on ABC
  phases ABCN;
  from R3_12_47_2_node_112;
  to R3_12_47_2_node_14;
  length 302.215;
  configuration ID_42;
}
object underground_line {
  name R3_12_47_2_ul_30;
// downstream 32.78 kva on ABC
  phases ABCN;
  from R3_12_47_2_node_113;
  to R3_12_47_2_node_13;
  length 128.005;
  configuration ID_42;
}
object underground_line {
  name R3_12_47_2_ul_31;
// downstream 10.71 kva on A
  phases AN;
  from R3_12_47_2_node_114;
  to R3_12_47_2_node_15;
  length 73.810;
  configuration ID_43;
}
object underground_line {
  name R3_12_47_2_ul_32;
// downstream 65.56 kva on ABC
  phases ABCN;
  from R3_12_47_2_node_116;
  to R3_12_47_2_node_16;
  length 41.949;
  configuration ID_44;
}
object underground_line {
  name R3_12_47_2_ul_33;
// downstream 65.56 kva on ABC
  phases ABCN;
  from R3_12_47_2_node_117;
  to R3_12_47_2_node_116;
  length 238.002;
  configuration ID_45;
}
object underground_line {
  name R3_12_47_2_ul_34;
// downstream 6.53 kva on C
  phases CN;
  from R3_12_47_2_node_118;
  to R3_12_47_2_node_119;
  length 30.897;
  configuration ID_48;
}
object underground_line {
  name R3_12_47_2_ul_35;
// downstream 6.53 kva on C
  phases CN;
  from R3_12_47_2_node_119;
  to R3_12_47_2_node_42;
  length 32.873;
  configuration ID_48;
}
object underground_line {
  name R3_12_47_2_ul_36;
// downstream 6.53 kva on C
  phases CN;
  from R3_12_47_2_node_122;
  to R3_12_47_2_node_17;
  length 62.848;
  configuration ID_41;
}
object underground_line {
  name R3_12_47_2_ul_37;
// downstream 32.78 kva on ABC
  phases ABCN;
  from R3_12_47_2_node_120;
  to R3_12_47_2_node_18;
  length 189.201;
  configuration ID_44;
}
object underground_line {
  name R3_12_47_2_ul_38;
// downstream 11.19 kva on B
  phases BN;
  from R3_12_47_2_node_125;
  to R3_12_47_2_node_19;
  length 54.555;
  configuration ID_47;
}
object underground_line {
  name R3_12_47_2_ul_39;
// downstream 65.56 kva on ABC
  phases ABCN;
  from R3_12_47_2_node_122;
  to R3_12_47_2_node_20;
  length 289.929;
  configuration ID_42;
}
object underground_line {
  name R3_12_47_2_ul_40;
// downstream 11.19 kva on B
  phases BN;
  from R3_12_47_2_node_180;
  to R3_12_47_2_node_21;
  length 478.189;
  configuration ID_47;
}
object underground_line {
  name R3_12_47_2_ul_41;
// downstream 65.56 kva on ABC
  phases ABCN;
  from R3_12_47_2_node_192;
  to R3_12_47_2_node_127;
  length 207.073;
  configuration ID_42;
}
object underground_line {
  name R3_12_47_2_ul_42;
// downstream 65.56 kva on ABC
  phases ABCN;
  from R3_12_47_2_node_127;
  to R3_12_47_2_node_179;
  length 28.313;
  configuration ID_42;
}
object underground_line {
  name R3_12_47_2_ul_43;
// downstream 65.56 kva on ABC
  phases ABCN;
  from R3_12_47_2_node_79;
  to R3_12_47_2_node_22;
  length 308.227;
  configuration ID_42;
}
object underground_line {
  name R3_12_47_2_ul_44;
// downstream 4.47 kva on B
  phases BN;
  from R3_12_47_2_node_131;
  to R3_12_47_2_node_23;
  length 40.881;
  configuration ID_47;
}
object underground_line {
  name R3_12_47_2_ul_45;
// downstream 19.67 kva on ABC
  phases ABCN;
  from R3_12_47_2_node_132;
  to R3_12_47_2_node_25;
  length 46.907;
  configuration ID_42;
}
object underground_line {
  name R3_12_47_2_ul_46;
// downstream 4.47 kva on B
  phases BN;
  from R3_12_47_2_node_137;
  to R3_12_47_2_node_26;
  length 44.209;
  configuration ID_47;
}
object underground_line {
  name R3_12_47_2_ul_47;
// downstream 218.52 kva on ABC
  phases ABCN;
  from R3_12_47_2_node_183;
  to R3_12_47_2_node_43;
  length 63.671;
  configuration ID_42;
}
object underground_line {
  name R3_12_47_2_ul_48;
// downstream 19.71 kva on ABC
  phases ABCN;
  from R3_12_47_2_node_139;
  to R3_12_47_2_node_27;
  length 271.100;
  configuration ID_42;
}
object underground_line {
  name R3_12_47_2_ul_49;
// downstream 131.11 kva on ABC
  phases ABCN;
  from R3_12_47_2_node_225;
  to R3_12_47_2_node_44;
  length 73.474;
  configuration ID_44;
}
object underground_line {
  name R3_12_47_2_ul_50;
// downstream 10.71 kva on A
  phases AN;
  from R3_12_47_2_node_140;
  to R3_12_47_2_node_28;
  length 165.193;
  configuration ID_43;
}
object underground_line {
  name R3_12_47_2_ul_51;
// downstream 4.35 kva on ABC
  phases ABCN;
  from R3_12_47_2_node_141;
  to R3_12_47_2_node_29;
  length 22.232;
  configuration ID_42;
}
object underground_line {
  name R3_12_47_2_ul_52;
// downstream 264.36 kva on ABC
  phases ABCN;
  from R3_12_47_2_node_142;
  to R3_12_47_2_node_227;
  length 265.297;
  configuration ID_42;
}
object underground_line {
  name R3_12_47_2_ul_53;
// downstream 65.56 kva on ABC
  phases ABCN;
  from R3_12_47_2_node_142;
  to R3_12_47_2_node_30;
  length 336.150;
  configuration ID_42;
}
object underground_line {
  name R3_12_47_2_ul_54;
// downstream 19.67 kva on ABC
  phases ABCN;
  from R3_12_47_2_node_143;
  to R3_12_47_2_node_31;
  length 245.422;
  configuration ID_42;
}
object underground_line {
  name R3_12_47_2_ul_55;
// downstream 32.78 kva on ABC
  phases ABCN;
  from R3_12_47_2_node_144;
  to R3_12_47_2_node_32;
  length 131.627;
  configuration ID_42;
}
object underground_line {
  name R3_12_47_2_ul_56;
// downstream 65.56 kva on ABC
  phases ABCN;
  from R3_12_47_2_node_145;
  to R3_12_47_2_node_46;
  length 168.109;
  configuration ID_42;
}
object underground_line {
  name R3_12_47_2_ul_57;
// downstream 19.67 kva on ABC
  phases ABCN;
  from R3_12_47_2_node_146;
  to R3_12_47_2_node_33;
  length 200.871;
  configuration ID_42;
}
object underground_line {
  name R3_12_47_2_ul_58;
// downstream 218.52 kva on ABC
  phases ABCN;
  from R3_12_47_2_node_147;
  to R3_12_47_2_node_34;
  length 292.759;
  configuration ID_44;
}
object underground_line {
  name R3_12_47_2_ul_59;
// downstream 218.52 kva on ABC
  phases ABCN;
  from R3_12_47_2_node_147;
  to R3_12_47_2_node_35;
  length 214.050;
  configuration ID_44;
}
object underground_line {
  name R3_12_47_2_ul_60;
// downstream 655.55 kva on ABC
  phases ABCN;
  from R3_12_47_2_node_150;
  to R3_12_47_2_node_36;
  length 89.824;
  configuration ID_44;
}
object underground_line {
  name R3_12_47_2_ul_61;
// downstream 655.55 kva on ABC
  phases ABCN;
  from R3_12_47_2_node_149;
  to R3_12_47_2_node_37;
  length 92.398;
  configuration ID_44;
}
object underground_line {
  name R3_12_47_2_ul_62;
// downstream 32.78 kva on ABC
  phases ABCN;
  from R3_12_47_2_node_151;
  to R3_12_47_2_node_38;
  length 158.999;
  configuration ID_44;
}
object underground_line {
  name R3_12_47_2_ul_63;
// downstream 436.60 kva on ABC
  phases ABCN;
  from R3_12_47_2_node_151;
  to R3_12_47_2_node_178;
  length 27.837;
  configuration ID_44;
}
object underground_line {
  name R3_12_47_2_ul_64;
// downstream 327.78 kva on ABC
  phases ABCN;
  from R3_12_47_2_node_129;
  to R3_12_47_2_node_24;
  length 457.875;
  configuration ID_42;
}
object underground_line {
  name R3_12_47_2_ul_65;
  phases ABCN;
  from R3_12_47_2_node_152;
  to R3_12_47_2_node_175;
  length 948.841;
  configuration ID_46;
}
object underground_line {
  name R3_12_47_2_ul_66;
// downstream 3701.89 kva on ABC
  phases ABCN;
  from R3_12_47_2_node_154;
  to R3_12_47_2_node_156;
  length 521.321;
  configuration ID_46;
}
object underground_line {
  name R3_12_47_2_ul_67;
  phases ABCN;
  from R3_12_47_2_node_218;
  to R3_12_47_2_node_153;
  length 44.027;
  configuration ID_46;
}
object underground_line {
  name R3_12_47_2_ul_68;
  phases ABCN;
  from R3_12_47_2_node_235;
  to R3_12_47_2_node_155;
  length 966.305;
  configuration ID_46;
}
object underground_line {
  name R3_12_47_2_ul_69;
// downstream 275.58 kva on ABC
  phases ABCN;
  from R3_12_47_2_node_76;
  to R3_12_47_2_node_110;
  length 21.037;
  configuration ID_45;
}
object underground_line {
  name R3_12_47_2_ul_70;
  phases ABCN;
  from R3_12_47_2_node_113;
  to R3_12_47_2_node_111;
  length 337.082;
  configuration ID_45;
}
object underground_line {
  name R3_12_47_2_ul_71;
// downstream 32.78 kva on ABC
  phases ABCN;
  from R3_12_47_2_node_114;
  to R3_12_47_2_node_112;
  length 120.288;
  configuration ID_45;
}
object underground_line {
  name R3_12_47_2_ul_72;
// downstream 275.58 kva on ABC
  phases ABCN;
  from R3_12_47_2_node_110;
  to R3_12_47_2_node_114;
  length 497.083;
  configuration ID_45;
}
object underground_line {
  name R3_12_47_2_ul_73;
// downstream 232.10 kva on ABC
  phases ABCN;
  from R3_12_47_2_node_114;
  to R3_12_47_2_node_115;
  length 336.606;
  configuration ID_45;
}
object underground_line {
  name R3_12_47_2_ul_74;
// downstream 32.78 kva on ABC
  phases ABCN;
  from R3_12_47_2_node_117;
  to R3_12_47_2_node_113;
  length 253.496;
  configuration ID_45;
}
object underground_line {
  name R3_12_47_2_ul_75;
// downstream 6.53 kva on C
  phases ABCN;
  from R3_12_47_2_node_120;
  to R3_12_47_2_node_118;
  length 350.101;
  configuration ID_45;
}
object underground_line {
  name R3_12_47_2_ul_76;
// downstream 39.31 kva on ABC
  phases ABCN;
  from R3_12_47_2_node_122;
  to R3_12_47_2_node_121;
  length 820.380;
  configuration ID_45;
}
object underground_line {
  name R3_12_47_2_ul_77;
// downstream 111.39 kva on ABC
  phases ABCN;
  from R3_12_47_2_node_123;
  to R3_12_47_2_node_122;
  length 212.221;
  configuration ID_45;
}
object underground_line {
  name R3_12_47_2_ul_78;
// downstream 220.91 kva on ABC
  phases ABCN;
  from R3_12_47_2_node_115;
  to R3_12_47_2_node_124;
  length 574.753;
  configuration ID_45;
}
object underground_line {
  name R3_12_47_2_ul_79;
// downstream 111.39 kva on ABC
  phases ABCN;
  from R3_12_47_2_node_125;
  to R3_12_47_2_node_123;
  length 694.121;
  configuration ID_45;
}
object underground_line {
  name R3_12_47_2_ul_80;
// downstream 98.33 kva on ABC
  phases ABCN;
  from R3_12_47_2_node_125;
  to R3_12_47_2_node_117;
  length 148.131;
  configuration ID_45;
}
object underground_line {
  name R3_12_47_2_ul_81;
// downstream 220.91 kva on ABC
  phases ABCN;
  from R3_12_47_2_node_124;
  to R3_12_47_2_node_125;
  length 134.783;
  configuration ID_45;
}
object underground_line {
  name R3_12_47_2_ul_82;
  phases ABCN;
  from R3_12_47_2_node_124;
  to R3_12_47_2_node_157;
  length 169.878;
  configuration ID_45;
}
object underground_line {
  name R3_12_47_2_ul_83;
  phases ABCN;
  from R3_12_47_2_node_157;
  to R3_12_47_2_node_126;
  length 763.592;
  configuration ID_45;
}
object underground_line {
  name R3_12_47_2_ul_84;
// downstream 3804.23 kva on ABC
  phases ABCN;
  from R3_12_47_2_node_129;
  to R3_12_47_2_node_128;
  length 461.550;
  configuration ID_45;
}
object underground_line {
  name R3_12_47_2_ul_85;
// downstream 8.95 kva on B
  phases ABCN;
  from R3_12_47_2_node_128;
  to R3_12_47_2_node_131;
  length 231.598;
  configuration ID_45;
}
object underground_line {
  name R3_12_47_2_ul_86;
// downstream 4208.27 kva on ABC
  phases ABCN;
  from R3_12_47_2_node_132;
  to R3_12_47_2_node_130;
  length 320.243;
  configuration ID_45;
}
object underground_line {
  name R3_12_47_2_ul_87;
// downstream 4.47 kva on B
  phases ABCN;
  from R3_12_47_2_node_131;
  to R3_12_47_2_node_133;
  length 934.196;
  configuration ID_45;
}
object underground_line {
  name R3_12_47_2_ul_88;
// downstream 4227.94 kva on ABC
  phases ABCN;
  from R3_12_47_2_node_135;
  to R3_12_47_2_node_132;
  length 448.789;
  configuration ID_45;
}
object underground_line {
  name R3_12_47_2_ul_89;
// downstream 4280.38 kva on ABC
  phases ABCN;
  from R3_12_47_2_node_174;
  to R3_12_47_2_node_134;
  length 385.914;
  configuration ID_51;
}
object underground_line {
  name R3_12_47_2_ul_90;
// downstream 4280.38 kva on ABC
  phases ABCN;
  from R3_12_47_2_node_245;
  to R3_12_47_2_node_135;
  length 25.844;
  configuration ID_51;
}
object underground_line {
  name R3_12_47_2_ul_91;
// downstream 4280.38 kva on ABC
  phases ABCN;
  from R3_12_47_2_node_72;
  to R3_12_47_2_node_174;
  length 280.266;
  configuration ID_51;
}
object underground_line {
  name R3_12_47_2_ul_92;
// downstream 4280.38 kva on ABC
  phases ABCN;
  from R3_12_47_2_node_134;
  to R3_12_47_2_node_136;
  length 293.412;
  configuration ID_51;
}
object underground_line {
  name R3_12_47_2_ul_93;
// downstream 229.40 kva on ABC
  phases ABCN;
  from R3_12_47_2_node_138;
  to R3_12_47_2_node_183;
  length 236.226;
  configuration ID_45;
}
object underground_line {
  name R3_12_47_2_ul_94;
// downstream 19.71 kva on ABC
  phases ABCN;
  from R3_12_47_2_node_224;
  to R3_12_47_2_node_139;
  length 52.243;
  configuration ID_45;
}
object underground_line {
  name R3_12_47_2_ul_95;
// downstream 229.40 kva on ABC
  phases ABCN;
  from R3_12_47_2_node_165;
  to R3_12_47_2_node_138;
  length 307.637;
  configuration ID_45;
}
object underground_line {
  name R3_12_47_2_ul_96;
  phases ABCN;
  from R3_12_47_2_node_141;
  to R3_12_47_2_node_265;
  length 189.055;
  configuration ID_45;
}
object underground_line {
  name R3_12_47_2_ul_97;
// downstream 329.92 kva on ABC
  phases ABCN;
  from R3_12_47_2_node_140;
  to R3_12_47_2_node_142;
  length 111.915;
  configuration ID_45;
}
object underground_line {
  name R3_12_47_2_ul_98;
// downstream 4.35 kva on ABC
  phases ABCN;
  from R3_12_47_2_node_143;
  to R3_12_47_2_node_141;
  length 90.737;
  configuration ID_45;
}
object underground_line {
  name R3_12_47_2_ul_99;
// downstream 340.63 kva on ABC
...